************************************************************************
* auCdl Netlist:
*
* Library Name: Toyota_ToshibaLib
* Top Cell Name: Top_test
* View Name: schematic
* Netlisted on: Nov 28 16:08:09 2005
************************************************************************

*.GLOBAL vss1 vdd1 gnd1 gnd2 vdd2 vss2 Vdd3 vss3 gnd3 Gnd

*.PIN vss!
*+ vdd!
*+ gnd!
*+ gnda!
*+ vdda!
*+ vssa!

.PARAM  reshtc1=0 reshtc2=0 resltc1=0 resltc2=0 scalef=0.19 deltwn=0.04u  
.PARAM  deltwp=0.04u deltln=-0.16u deltlp=-0.16u rshflag=0 rshw=1u scalef1=1.0 deltwn1=0.0u 
.PARAM  deltwp1=0.0u deltln1=0u deltlp1=0u rshflag1=0 rshw1=1u

.PARAM Vm=4.424E-6
.PARAM Vin=3.213E-6

*.PARAM Vm=2.2E-6
*.PARAM Vin=1E-6
.PARAM k=1.4
.PARAM Ra='8.31441/(28.96E-3)'
.PARAM Ta='273+24'
.PARAM Pa=1
.PARAM a=1.433E-7
.PARAM b=-1.0817E-3
.PARAM kRTa='k*Ra*Ta/97.86E3'
.PARAM Vinial='97.86E3/(Ra*Ta)'
*.PARAM thcoef='700*1E-6/101.3*sqrt((273+25)*Ra)'
.PARAM thcoef='100*1E-6/101.3*sqrt((273+25)*Ra)'
.PARAM Ct_input='20*thcoef*sqrt(97.86E3)'


************************************************************************
* Library Name: Toyota_ToshibaLib
* Cell Name: Output_Pad_cell
* View Name: schematic
************************************************************************

.SUBCKT Output_Pad_cell Inout Vdd Vss
*.PININFO Vdd:I Vss:I Inout:B
MM1 Inout Vss Vss Vss NMOS W=280e-6*ScaleF1+deltwN1 L=600e-9*ScaleF1+deltlN1 M=1
MM0 Inout Vdd Vdd Vdd PMOS W=440e-6*ScaleF1+deltwP1 L=600e-9*ScaleF1+deltlP1 M=1
.ENDS

************************************************************************
* Library Name: Toyota_ToshibaLib
* Cell Name: Pad_TestPart_Output
* View Name: schematic
************************************************************************

.SUBCKT Pad_TestPart_Output N0 N1 N2 N3 N4 N5 N6 Vdd Vss
*.PININFO N0:I N1:I N2:I N3:I N4:I N5:I N6:I Vdd:I Vss:I
XI14 N6 Vdd Vss / Output_Pad_cell
XI5 N4 Vdd Vss / Output_Pad_cell
XI4 N5 Vdd Vss / Output_Pad_cell
XI3 N3 Vdd Vss / Output_Pad_cell
XI2 N2 Vdd Vss / Output_Pad_cell
XI1 N1 Vdd Vss / Output_Pad_cell
XI0 N0 Vdd Vss / Output_Pad_cell
.ENDS

************************************************************************
* Library Name: Toyota_ToshibaLib
* Cell Name: OP_AMP_DS
* View Name: schematic
************************************************************************

.SUBCKT OP_AMP_DS Vdd Vin+ Vin- Vout Vss
*.PININFO Vdd:I Vin+:I Vin-:I Vss:I Vout:O
CC0 Vout net5 1.5p $[CP]
RR0 net5 net8 10K $[RH]
MM2 net8 Vin+ net15 Vss NMOS W=16e-6*ScaleF1+deltwN1 L=1e-6*ScaleF1+deltlN1 M=1
MM1 net12 Vin- net15 Vss NMOS W=16e-6*ScaleF1+deltwN1 L=1e-6*ScaleF1+deltlN1 M=1
MM8 net15 net24 Vss Vss NMOS W=4e-6*ScaleF1+deltwN1 L=1e-6*ScaleF1+deltlN1 M=1
MM7 Vout net24 Vss Vss NMOS W=12e-6*ScaleF1+deltwN1 L=1e-6*ScaleF1+deltlN1 M=1
MM5 net24 net24 Vss Vss NMOS W=4e-6*ScaleF1+deltwN1 L=1e-6*ScaleF1+deltlN1 M=1
MM9 net24 net24 Vdd Vdd PMOS W=2e-6*ScaleF1+deltwP1 L=5e-6*ScaleF1+deltlP1 M=1
MM4 net8 net12 Vdd Vdd PMOS W=12e-6*ScaleF1+deltwP1 L=1e-6*ScaleF1+deltlP1 M=1
MM6 Vout net8 Vdd Vdd PMOS W=70e-6*ScaleF1+deltwP1 L=1e-6*ScaleF1+deltlP1 M=1
MM3 net12 net12 Vdd Vdd PMOS W=12e-6*ScaleF1+deltwP1 L=1e-6*ScaleF1+deltlP1 M=1
.ENDS

************************************************************************
* Library Name: Toyota_ToshibaLib
* Cell Name: Testpart_Output
* View Name: schematic
************************************************************************

.SUBCKT Testpart_Output Vdd Vin1 Vin2 Vin3 Vin4 Vin5 Vin6 Vin7 Vout+ Vout- Vout_D Vout_M Vout_M_D Vout_OPAMP Vout_S Vss
*.PININFO Vdd:I Vin1:I Vin2:I Vin3:I Vin4:I Vin5:I Vin6:I Vin7:I Vss:I Vout+:O
*+Vout-:O Vout_D:O Vout_M:O Vout_M_D:O Vout_OPAMP:O Vout_S:O
XI6 Vdd Vin6 Vout+ Vout+ Vss / OP_AMP_DS
XI5 Vdd Vin7 Vout- Vout- Vss / OP_AMP_DS
XI4 Vdd Vin5 Vout_S Vout_S Vss / OP_AMP_DS
XI3 Vdd Vin3 Vout_M_D Vout_M_D Vss / OP_AMP_DS
XI2 Vdd Vin4 Vout_OPAMP Vout_OPAMP Vss / OP_AMP_DS
XI1 Vdd Vin2 Vout_M Vout_M Vss / OP_AMP_DS
XI0 Vdd Vin1 Vout_D Vout_D Vss / OP_AMP_DS
.ENDS

************************************************************************
* Library Name: Toyota_ToshibaLib
* Cell Name: OP_AMP_DS_test
* View Name: schematic
************************************************************************

.SUBCKT OP_AMP_DS_test Vdd Vin+ Vin- Vout Vss
*.PININFO Vdd:I Vin+:I Vin-:I Vss:I Vout:O
CC0 Vout net77 1.5p $[CP]
MM3 net61 net61 Vdd Vdd PMOS W=12e-6*ScaleF1+deltwP1 L=1e-6*ScaleF1+deltlP1 M=1
MM9 net73 net73 Vdd Vdd PMOS W=2e-6*ScaleF1+deltwP1 L=5e-6*ScaleF1+deltlP1 M=1
MM4 net57 net61 Vdd Vdd PMOS W=12e-6*ScaleF1+deltwP1 L=1e-6*ScaleF1+deltlP1 M=1
MM6 Vout net57 Vdd Vdd PMOS W=70e-6*ScaleF1+deltwP1 L=1e-6*ScaleF1+deltlP1 M=1
MM2 net57 Vin+ net64 Vss NMOS W=16e-6*ScaleF1+deltwN1 L=1e-6*ScaleF1+deltlN1 M=1
MM1 net61 Vin- net64 Vss NMOS W=16e-6*ScaleF1+deltwN1 L=1e-6*ScaleF1+deltlN1 M=1
MM8 net64 net73 Vss Vss NMOS W=4e-6*ScaleF1+deltwN1 L=1e-6*ScaleF1+deltlN1 M=1
MM7 Vout net73 Vss Vss NMOS W=12e-6*ScaleF1+deltwN1 L=1e-6*ScaleF1+deltlN1 M=1
MM5 net73 net73 Vss Vss NMOS W=4e-6*ScaleF1+deltwN1 L=1e-6*ScaleF1+deltlN1 M=1
RR0 net77 net57 10K $[RH]
.ENDS

************************************************************************
* Library Name: Toyota_ToshibaLib
* Cell Name: Multiplier_Huang_test
* View Name: schematic
************************************************************************

.SUBCKT Multiplier_Huang_test Gnd Vb+ Vb- Vdd Vout+ Vout- Vss Vx+ Vx- Vy+ Vy-
*.PININFO Gnd:I Vb+:I Vb-:I Vdd:I Vss:I Vx+:I Vx-:I Vy+:I Vy-:I Vout+:O Vout-:O
XI19 Vdd Gnd net107 Vout- Vss / OP_AMP_DS_test
XI15 Vdd Gnd net142 Vout+ Vss / OP_AMP_DS_test
MM27 net118 Vy+ Vss Vss NMOS W=2e-6*ScaleF1+deltwN1 L=11e-6*ScaleF1+deltlN1 M=1
MM26 net122 Vy- Vss Vss NMOS W=2e-6*ScaleF1+deltwN1 L=11e-6*ScaleF1+deltlN1 M=1
MM25 net116 Vy- Vss Vss NMOS W=2e-6*ScaleF1+deltwN1 L=11e-6*ScaleF1+deltlN1 M=1
MM24 net114 Vy+ Vss Vss NMOS W=2e-6*ScaleF1+deltwN1 L=11e-6*ScaleF1+deltlN1 M=1
MM23 net146 Vx- net114 Vss NMOS W=2e-6*ScaleF1+deltwN1 L=11e-6*ScaleF1+deltlN1 M=1
MM22 net142 Vx- net122 Vss NMOS W=2e-6*ScaleF1+deltwN1 L=11e-6*ScaleF1+deltlN1 M=1
MM21 net146 Vx+ net116 Vss NMOS W=2e-6*ScaleF1+deltwN1 L=11e-6*ScaleF1+deltlN1 M=1
MM20 net142 Vx+ net118 Vss NMOS W=2e-6*ScaleF1+deltwN1 L=11e-6*ScaleF1+deltlN1 M=1
MM16 net110 Vb+ Vss Vss NMOS W=2e-6*ScaleF1+deltwN1 L=11e-6*ScaleF1+deltlN1 M=1
MM18 net154 Vb- Vss Vss NMOS W=2e-6*ScaleF1+deltwN1 L=11e-6*ScaleF1+deltlN1 M=1
MM17 net112 Vb- Vss Vss NMOS W=2e-6*ScaleF1+deltwN1 L=11e-6*ScaleF1+deltlN1 M=1
MM0 net146 Vout+ net178 Vss NMOS W=2e-6*ScaleF1+deltwN1 L=11e-6*ScaleF1+deltlN1 M=1
MM15 net142 Vout- net110 Vss NMOS W=2e-6*ScaleF1+deltwN1 L=11e-6*ScaleF1+deltlN1 M=1
MM14 net146 Vout- net154 Vss NMOS W=2e-6*ScaleF1+deltwN1 L=11e-6*ScaleF1+deltlN1 M=1
MM13 net142 Vout+ net112 Vss NMOS W=2e-6*ScaleF1+deltwN1 L=11e-6*ScaleF1+deltlN1 M=1
MM19 net178 Vb+ Vss Vss NMOS W=2e-6*ScaleF1+deltwN1 L=11e-6*ScaleF1+deltlN1 M=1
MM31 net142 net146 net185 Vdd PMOS W=58e-6*ScaleF1+deltwP1 L=1e-6*ScaleF1+deltlP1 M=1
MM30 net185 net197 Vdd Vdd PMOS W=58e-6*ScaleF1+deltwP1 L=1e-6*ScaleF1+deltlP1 M=1
MM29 net197 net197 Vdd Vdd PMOS W=58e-6*ScaleF1+deltwP1 L=1e-6*ScaleF1+deltlP1 M=1
MM28 net146 net146 net197 Vdd PMOS W=58e-6*ScaleF1+deltwP1 L=1e-6*ScaleF1+deltlP1 M=1
RR3 net154 net110 10K $[RH]
RR2 net178 net112 10K $[RH]
RR9 net122 net114 10K $[RH]
RR8 net118 net116 10K $[RH]
RR7 net107 Vout+ 50K $[RH]
RR6 Vout- net107 50K $[RH]
.ENDS

************************************************************************
* Library Name: Toyota_ToshibaLib
* Cell Name: OP_AMP_test
* View Name: schematic
************************************************************************

.SUBCKT OP_AMP_test Vdd Vin+ Vin- Vout Vss
*.PININFO Vdd:I Vin+:I Vin-:I Vss:I Vout:O
CC1 net79 Vout 1.5p $[CP]
MM3 net62 net62 Vdd Vdd PMOS W=16e-6*ScaleF1+deltwP1 L=2e-6*ScaleF1+deltlP1 M=1
MM6 Vout net58 Vdd Vdd PMOS W=90e-6*ScaleF1+deltwP1 L=2e-6*ScaleF1+deltlP1 M=1
MM4 net58 net62 Vdd Vdd PMOS W=16e-6*ScaleF1+deltwP1 L=2e-6*ScaleF1+deltlP1 M=1
MM9 net74 net74 Vdd Vdd PMOS W=2e-6*ScaleF1+deltwP1 L=5e-6*ScaleF1+deltlP1 M=1
MM5 net74 net74 Vss Vss NMOS W=4e-6*ScaleF1+deltwN1 L=2e-6*ScaleF1+deltlN1 M=1
MM7 Vout net74 Vss Vss NMOS W=12e-6*ScaleF1+deltwN1 L=2e-6*ScaleF1+deltlN1 M=1
MM8 net65 net74 Vss Vss NMOS W=4e-6*ScaleF1+deltwN1 L=2e-6*ScaleF1+deltlN1 M=1
MM1 net62 Vin- net65 Vss NMOS W=20e-6*ScaleF1+deltwN1 L=2e-6*ScaleF1+deltlN1 M=1
MM2 net58 Vin+ net65 Vss NMOS W=20e-6*ScaleF1+deltwN1 L=2e-6*ScaleF1+deltlN1 M=1
RR0 net58 net79 10K $[RH]
.ENDS

************************************************************************
* Library Name: Toyota_ToshibaLib
* Cell Name: Square_root_cell_test
* View Name: schematic
************************************************************************

.SUBCKT Square_root_cell_test Iout Vdd Vss Vx+ Vx-
*.PININFO Vdd:I Vss:I Vx+:I Vx-:I Iout:O
MM10 net83 net83 net54 Vdd PMOS W=28e-6*ScaleF1+deltwP1 L=1e-6*ScaleF1+deltlP1 M=1
MM11 net66 net54 Vdd Vdd PMOS W=28e-6*ScaleF1+deltwP1 L=1e-6*ScaleF1+deltlP1 M=1
MM9 net54 net54 Vdd Vdd PMOS W=28e-6*ScaleF1+deltwP1 L=1e-6*ScaleF1+deltlP1 M=1
MM12 Iout net83 net66 Vdd PMOS W=28e-6*ScaleF1+deltwP1 L=1e-6*ScaleF1+deltlP1 M=1
MM2 net67 Vx- Vss Vss NMOS W=2e-6*ScaleF1+deltwN1 L=11e-6*ScaleF1+deltlN1 M=1
MM4 net71 Vx+ Vss Vss NMOS W=2e-6*ScaleF1+deltwN1 L=11e-6*ScaleF1+deltlN1 M=1
MM8 net83 Vx- net71 Vss NMOS W=2e-6*ScaleF1+deltwN1 L=11e-6*ScaleF1+deltlN1 M=1
MM7 Iout Vx- net91 Vss NMOS W=2e-6*ScaleF1+deltwN1 L=11e-6*ScaleF1+deltlN1 M=1
MM6 net83 Vx+ net67 Vss NMOS W=2e-6*ScaleF1+deltwN1 L=11e-6*ScaleF1+deltlN1 M=1
MM5 Iout Vx+ net95 Vss NMOS W=2e-6*ScaleF1+deltwN1 L=11e-6*ScaleF1+deltlN1 M=1
MM3 net91 Vx- Vss Vss NMOS W=2e-6*ScaleF1+deltwN1 L=11e-6*ScaleF1+deltlN1 M=1
MM1 net95 Vx+ Vss Vss NMOS W=2e-6*ScaleF1+deltwN1 L=11e-6*ScaleF1+deltlN1 M=1
.ENDS

************************************************************************
* Library Name: Toyota_ToshibaLib
* Cell Name: Square_root_test
* View Name: schematic
************************************************************************

.SUBCKT Square_root_test Gnd Vdd Vin Vout Vss
*.PININFO Gnd:I Vdd:I Vin:I Vss:I Vout:O
XI4 Vdd Vin net056 net44 Vss / OP_AMP_DS_test
XI3 Vdd Gnd net039 net056 Vss / OP_AMP_DS_test
XI2 Vdd Gnd net22 net45 Vss / OP_AMP_DS_test
XI1 Vdd Gnd net26 net46 Vss / OP_AMP_DS_test
XI0 net039 Vdd Vss net46 net45 / Square_root_cell_test
MM0 Vdd net44 Vout Vss NMOS W=200e-6*ScaleF1+deltwN1 L=600e-9*ScaleF1+deltlN1 M=1
RR5 Vout Gnd 200K $[RH]
RR4 net039 net056 245K $[RH]
RR3 net22 net45 100K $[RH]
RR2 net46 net22 100K $[RH]
RR1 Vout net26 200K $[RH]
RR0 net26 net46 100K $[RH]
.ENDS

************************************************************************
* Library Name: Toyota_ToshibaLib
* Cell Name: Multiplier_cell_test
* View Name: schematic
************************************************************************

.SUBCKT Multiplier_cell_test Iout Vdd Vss Vx+ Vx- Vy+ Vy-
*.PININFO Vdd:I Vss:I Vx+:I Vx-:I Vy+:I Vy-:I Iout:O
MM5 Iout Vx+ net50 Vss NMOS W=2e-6*ScaleF1+deltwN1 L=11e-6*ScaleF1+deltlN1 M=1
MM6 net26 Vx+ net42 Vss NMOS W=2e-6*ScaleF1+deltwN1 L=11e-6*ScaleF1+deltlN1 M=1
MM7 Iout Vx- net46 Vss NMOS W=2e-6*ScaleF1+deltwN1 L=11e-6*ScaleF1+deltlN1 M=1
MM8 net26 Vx- net38 Vss NMOS W=2e-6*ScaleF1+deltwN1 L=11e-6*ScaleF1+deltlN1 M=1
MM4 net38 Vy+ Vss Vss NMOS W=2e-6*ScaleF1+deltwN1 L=11e-6*ScaleF1+deltlN1 M=1
MM2 net42 Vy- Vss Vss NMOS W=2e-6*ScaleF1+deltwN1 L=11e-6*ScaleF1+deltlN1 M=1
MM3 net46 Vy- Vss Vss NMOS W=2e-6*ScaleF1+deltwN1 L=11e-6*ScaleF1+deltlN1 M=1
MM1 net50 Vy+ Vss Vss NMOS W=2e-6*ScaleF1+deltwN1 L=11e-6*ScaleF1+deltlN1 M=1
MM10 net26 net26 net21 Vdd PMOS W=28e-6*ScaleF1+deltwP1 L=1e-6*ScaleF1+deltlP1 M=1
MM9 net21 net21 Vdd Vdd PMOS W=28e-6*ScaleF1+deltwP1 L=1e-6*ScaleF1+deltlP1 M=1
MM12 net9 net21 Vdd Vdd PMOS W=28e-6*ScaleF1+deltwP1 L=1e-6*ScaleF1+deltlP1 M=1
MM11 Iout net26 net9 Vdd PMOS W=28e-6*ScaleF1+deltwP1 L=1e-6*ScaleF1+deltlP1 M=1
.ENDS

************************************************************************
* Library Name: Toyota_ToshibaLib
* Cell Name: Multiplier_test
* View Name: schematic
************************************************************************

.SUBCKT Multiplier_test Gnd Vdd Vin1 Vin2 Vout Vss
*.PININFO Gnd:I Vdd:I Vin1:I Vin2:I Vss:I Vout:O
XI5 net51 Vdd Vss net37 net33 net45 net29 / Multiplier_cell_test
XI15 Vdd Gnd net31 net29 Vss / OP_AMP_DS_test
XI12 Vdd Gnd net39 net37 Vss / OP_AMP_DS_test
XI13 Vdd Gnd net35 net45 Vss / OP_AMP_DS_test
XI14 Vdd Gnd net43 net33 Vss / OP_AMP_DS_test
XI11 Vdd Gnd net51 Vout Vss / OP_AMP_DS_test
RR9 net31 net29 100K $[RH]
RR8 net45 net31 100K $[RH]
RR7 net43 net33 100K $[RH]
RR4 Vin2 net35 100K $[RH]
RR3 net39 net37 25K $[RH]
RR2 Vin1 net39 100K $[RH]
RR1 net51 Vout 970.00K $[RH]
RR6 net37 net43 100K $[RH]
RR5 net35 net45 25K $[RH]
.ENDS

************************************************************************
* Library Name: Toyota_ToshibaLib
* Cell Name: Divider_test
* View Name: schematic
************************************************************************

.SUBCKT Divider_test Gnd Vdd Vin1 Vin2 Vout Vss
*.PININFO Gnd:I Vdd:I Vin1:I Vin2:I Vss:I Vout:O
XI2 Vdd Vin1 net6 Vout Vss / OP_AMP_DS_test
XI3 Gnd Vdd Vin2 Vout net6 Vss / Multiplier_test
.ENDS

************************************************************************
* Library Name: Toyota_ToshibaLib
* Cell Name: Test_part
* View Name: schematic
************************************************************************

.SUBCKT Test_part Gnd3 Vb+ Vb- Vdd3 Vin_D_1 Vin_D_2 Vin_M_1 Vin_M_2 Vin_M_D_1 Vin_M_D_2 Vin_OPAMP_M Vin_OPAMP_P Vin_S Vout+ Vout- Vout_D Vout_M Vout_M_D Vout_OPAMP Vout_S Vref_M_D Vss3 Vx+ Vx- Vy+ Vy-
*.PININFO Gnd3:I Vb+:I Vb-:I Vdd3:I Vin_D_1:I Vin_D_2:I Vin_M_1:I Vin_M_2:I
*+Vin_M_D_1:I Vin_M_D_2:I Vin_OPAMP_M:I Vin_OPAMP_P:I Vin_S:I Vref_M_D:I Vss3:I
*+Vx+:I Vx-:I Vy+:I Vy-:I Vout+:O Vout-:O Vout_D:O Vout_M:O Vout_M_D:O
*+Vout_OPAMP:O Vout_S:O
XI11 Gnd3 Vb+ Vb- Vdd3 Vout+ Vout- Vss3 Vx+ Vx- Vy+ Vy- / Multiplier_Huang_test
XI5 Vdd3 Vin_OPAMP_P Vin_OPAMP_M Vout_OPAMP Vss3 / OP_AMP_test
XI2 Gnd3 Vdd3 Vin_S Vout_S Vss3 / Square_root_test
XI4 Gnd3 Vdd3 Vin_D_1 Vin_D_2 Vout_D Vss3 / Divider_test
XI1 Gnd3 Vdd3 net53 Vref_M_D Vout_M_D Vss3 / Divider_test
XI3 Gnd3 Vdd3 Vin_M_1 Vin_M_2 Vout_M Vss3 / Multiplier_test
XI0 Gnd3 Vdd3 Vin_M_D_1 Vin_M_D_2 net53 Vss3 / Multiplier_test
.ENDS

************************************************************************
* Library Name: Toyota_ToshibaLib
* Cell Name: Input_Pad_cell
* View Name: schematic
************************************************************************

.SUBCKT Input_Pad_cell In Out Vdd Vss
*.PININFO Vdd:I Vss:I In:B Out:B
MM1 In Vss Vss Vss NMOS W=280e-6*ScaleF1+deltwN1 L=600e-9*ScaleF1+deltlN1 M=1
MM0 In Vdd Vdd Vdd PMOS W=440e-6*ScaleF1+deltwP1 L=600e-9*ScaleF1+deltlP1 M=1
RR0 In Out 150 $[RLD]
.ENDS

************************************************************************
* Library Name: Toyota_ToshibaLib
* Cell Name: Pad_TestPart_Input
* View Name: schematic
************************************************************************

.SUBCKT Pad_TestPart_Input In1 In2 In3 In4 In5 In6 In7 In8 In9 In10 In11 In12 In13 In14 In15 In16 Out1 Out2 Out3 Out4 Out5 Out6 Out7 Out8 Out9 Out10 Out11 Out12 Out13 Out14 Out15 Out16 Vdd Vss
*.PININFO In1:I In2:I In3:I In4:I In5:I In6:I In7:I In8:I In9:I In10:I In11:I
*+In12:I In13:I In14:I In15:I In16:I Vdd:I Vss:I Out1:O Out2:O Out3:O Out4:O
*+Out5:O Out6:O Out7:O Out8:O Out9:O Out10:O Out11:O Out12:O Out13:O Out14:O
*+Out15:O Out16:O
XI15 In1 Out1 Vdd Vss / Input_Pad_cell
XI14 In2 Out2 Vdd Vss / Input_Pad_cell
XI13 In3 Out3 Vdd Vss / Input_Pad_cell
XI12 In4 Out4 Vdd Vss / Input_Pad_cell
XI11 In5 Out5 Vdd Vss / Input_Pad_cell
XI10 In8 Out8 Vdd Vss / Input_Pad_cell
XI9 In7 Out7 Vdd Vss / Input_Pad_cell
XI8 In6 Out6 Vdd Vss / Input_Pad_cell
XI7 In14 Out14 Vdd Vss / Input_Pad_cell
XI6 In15 Out15 Vdd Vss / Input_Pad_cell
XI5 In16 Out16 Vdd Vss / Input_Pad_cell
XI4 In13 Out13 Vdd Vss / Input_Pad_cell
XI3 In12 Out12 Vdd Vss / Input_Pad_cell
XI2 In11 Out11 Vdd Vss / Input_Pad_cell
XI1 In10 Out10 Vdd Vss / Input_Pad_cell
XI0 In9 Out9 Vdd Vss / Input_Pad_cell
.ENDS

************************************************************************
* Library Name: Toyota_ToshibaLib
* Cell Name: Pad_TopCell_Output
* View Name: schematic
************************************************************************

.SUBCKT Pad_TopCell_Output N0 N1 N2 N3 N4 N5 N6 N7 N8 N9 N10 N11 N12 N13 N14 N15 N16 N17 N18 N19 N20 N21 N22 N23 N24 N25 N26 N27 N28 N29 Vdd Vss
*.PININFO N0:I N1:I N2:I N3:I N4:I N5:I N6:I N7:I N8:I N9:I N10:I N11:I N12:I
*+N13:I N14:I N15:I N16:I N17:I N18:I N19:I N20:I N21:I N22:I N23:I N24:I N25:I
*+N26:I N27:I N28:I N29:I Vdd:I Vss:I
XI29 N29 Vdd Vss / Output_Pad_cell
XI28 N28 Vdd Vss / Output_Pad_cell
XI27 N27 Vdd Vss / Output_Pad_cell
XI26 N26 Vdd Vss / Output_Pad_cell
XI25 N25 Vdd Vss / Output_Pad_cell
XI24 N24 Vdd Vss / Output_Pad_cell
XI23 N12 Vdd Vss / Output_Pad_cell
XI22 N13 Vdd Vss / Output_Pad_cell
XI21 N14 Vdd Vss / Output_Pad_cell
XI20 N15 Vdd Vss / Output_Pad_cell
XI19 N16 Vdd Vss / Output_Pad_cell
XI18 N17 Vdd Vss / Output_Pad_cell
XI17 N18 Vdd Vss / Output_Pad_cell
XI16 N19 Vdd Vss / Output_Pad_cell
XI15 N20 Vdd Vss / Output_Pad_cell
XI14 N21 Vdd Vss / Output_Pad_cell
XI13 N22 Vdd Vss / Output_Pad_cell
XI12 N23 Vdd Vss / Output_Pad_cell
XI11 N6 Vdd Vss / Output_Pad_cell
XI10 N7 Vdd Vss / Output_Pad_cell
XI9 N8 Vdd Vss / Output_Pad_cell
XI8 N11 Vdd Vss / Output_Pad_cell
XI7 N9 Vdd Vss / Output_Pad_cell
XI6 N10 Vdd Vss / Output_Pad_cell
XI5 N4 Vdd Vss / Output_Pad_cell
XI4 N3 Vdd Vss / Output_Pad_cell
XI3 N5 Vdd Vss / Output_Pad_cell
XI2 N2 Vdd Vss / Output_Pad_cell
XI1 N1 Vdd Vss / Output_Pad_cell
XI0 N0 Vdd Vss / Output_Pad_cell
.ENDS

************************************************************************
* Library Name: Toyota_ToshibaLib
* Cell Name: Vcon2_output
* View Name: schematic
************************************************************************

.SUBCKT Vcon2_output Vcon2 Vcon2_in_1 Vcon2_test_1 Vcon2_test_2 Vcon2_test_3 Vcon2_test_4 Vcon2_test_5 Vcon2_test_6 Vcon_in_2 Vcon_in_3 Vcon_in_4 Vcon_in_5 Vcon_in_6 Vcon_in_7 Vdd2 Vss2
*.PININFO Vcon2_in_1:I Vcon_in_2:I Vcon_in_3:I Vcon_in_4:I Vcon_in_5:I
*+Vcon_in_6:I Vcon_in_7:I Vdd2:I Vss2:I Vcon2:O Vcon2_test_1:O Vcon2_test_2:O
*+Vcon2_test_3:O Vcon2_test_4:O Vcon2_test_5:O Vcon2_test_6:O
XI6 Vdd2 Vcon_in_7 Vcon2_test_6 Vcon2_test_6 Vss2 / OP_AMP_DS
XI5 Vdd2 Vcon_in_6 Vcon2_test_5 Vcon2_test_5 Vss2 / OP_AMP_DS
XI4 Vdd2 Vcon_in_5 Vcon2_test_4 Vcon2_test_4 Vss2 / OP_AMP_DS
XI3 Vdd2 Vcon_in_4 Vcon2_test_3 Vcon2_test_3 Vss2 / OP_AMP_DS
XI2 Vdd2 Vcon_in_3 Vcon2_test_2 Vcon2_test_2 Vss2 / OP_AMP_DS
XI1 Vdd2 Vcon_in_2 Vcon2_test_1 Vcon2_test_1 Vss2 / OP_AMP_DS
XI0 Vdd2 Vcon2_in_1 Vcon2 Vcon2 Vss2 / OP_AMP_DS
.ENDS

************************************************************************
* Library Name: Toyota_ToshibaLib
* Cell Name: OP_AMP
* View Name: schematic
************************************************************************

.SUBCKT OP_AMP Vdd Vin+ Vin- Vout Vss
*.PININFO Vdd:I Vin+:I Vin-:I Vss:I Vout:O
CC1 net040 Vout 1.5p $[CP]
RR0 net029 net040 10K $[RH]
MM5 net013 net013 Vss Vss NMOS W=4e-6*ScaleF1+deltwN1 L=2e-6*ScaleF1+deltlN1 M=1
MM7 Vout net013 Vss Vss NMOS W=12e-6*ScaleF1+deltwN1 L=2e-6*ScaleF1+deltlN1 M=1
MM8 net12 net013 Vss Vss NMOS W=4e-6*ScaleF1+deltwN1 L=2e-6*ScaleF1+deltlN1 M=1
MM1 net9 Vin- net12 Vss NMOS W=20e-6*ScaleF1+deltwN1 L=2e-6*ScaleF1+deltlN1 M=1
MM2 net029 Vin+ net12 Vss NMOS W=20e-6*ScaleF1+deltwN1 L=2e-6*ScaleF1+deltlN1 M=1
MM3 net9 net9 Vdd Vdd PMOS W=16e-6*ScaleF1+deltwP1 L=2e-6*ScaleF1+deltlP1 M=1
MM6 Vout net029 Vdd Vdd PMOS W=90e-6*ScaleF1+deltwP1 L=2e-6*ScaleF1+deltlP1 M=1
MM4 net029 net9 Vdd Vdd PMOS W=16e-6*ScaleF1+deltwP1 L=2e-6*ScaleF1+deltlP1 M=1
MM9 net013 net013 Vdd Vdd PMOS W=2e-6*ScaleF1+deltwP1 L=5e-6*ScaleF1+deltlP1 M=1
.ENDS

************************************************************************
* Library Name: Toyota_ToshibaLib
* Cell Name: Vref_block
* View Name: schematic
************************************************************************

.SUBCKT Vref_block Gnd1 Vdd1 Vref Vref1 Vref2 Vref_Vcon2_1 Vref_Vcon2_2 Vref_Vcon6 Vss1
*.PININFO Gnd1:I Vdd1:I Vref:I Vss1:I Vref1:O Vref2:O Vref_Vcon2_1:O
*+Vref_Vcon2_2:O Vref_Vcon6:O
RR7 net083 Gnd1 2.2K $[RH]
RR6 net085 Gnd1 16.7K $[RH]
RR5 net30 net083 97.8K $[RH]
RR4 net36 net085 83.3K $[RH]
RR3 net33 Gnd1 100K $[RH]
RR2 Vref2 net33 14.77K $[RH]
XI20 Vdd1 net083 Vref_Vcon6 Vref_Vcon6 Vss1 / OP_AMP
XI19 Vdd1 net085 Vref_Vcon2_1 Vref_Vcon2_1 Vss1 / OP_AMP
XI12 Vdd1 Vref Vref_Vcon2_2 Vref_Vcon2_2 Vss1 / OP_AMP
XI11 Vdd1 Vref Vref1 Vref1 Vss1 / OP_AMP
XI3 Vdd1 Vref net30 net30 Vss1 / OP_AMP
XI2 Vdd1 Vref net33 Vref2 Vss1 / OP_AMP
XI1 Vdd1 Vref net36 net36 Vss1 / OP_AMP
.ENDS

************************************************************************
* Library Name: Toyota_ToshibaLib
* Cell Name: Multiplier_cell
* View Name: schematic
************************************************************************

.SUBCKT Multiplier_cell Iout Vdd Vss Vx+ Vx- Vy+ Vy-
*.PININFO Vdd:I Vss:I Vx+:I Vx-:I Vy+:I Vy-:I Iout:O
MM5 Iout Vx+ net50 Vss NMOS W=2e-6*ScaleF1+deltwN1 L=11e-6*ScaleF1+deltlN1 M=1
MM6 net26 Vx+ net42 Vss NMOS W=2e-6*ScaleF1+deltwN1 L=11e-6*ScaleF1+deltlN1 M=1
MM7 Iout Vx- net46 Vss NMOS W=2e-6*ScaleF1+deltwN1 L=11e-6*ScaleF1+deltlN1 M=1
MM8 net26 Vx- net38 Vss NMOS W=2e-6*ScaleF1+deltwN1 L=11e-6*ScaleF1+deltlN1 M=1
MM4 net38 Vy+ Vss Vss NMOS W=2e-6*ScaleF1+deltwN1 L=11e-6*ScaleF1+deltlN1 M=1
MM2 net42 Vy- Vss Vss NMOS W=2e-6*ScaleF1+deltwN1 L=11e-6*ScaleF1+deltlN1 M=1
MM3 net46 Vy- Vss Vss NMOS W=2e-6*ScaleF1+deltwN1 L=11e-6*ScaleF1+deltlN1 M=1
MM1 net50 Vy+ Vss Vss NMOS W=2e-6*ScaleF1+deltwN1 L=11e-6*ScaleF1+deltlN1 M=1
MM10 net26 net26 net21 Vdd PMOS W=28e-6*ScaleF1+deltwP1 L=1e-6*ScaleF1+deltlP1 M=1
MM9 net21 net21 Vdd Vdd PMOS W=28e-6*ScaleF1+deltwP1 L=1e-6*ScaleF1+deltlP1 M=1
MM12 net9 net21 Vdd Vdd PMOS W=28e-6*ScaleF1+deltwP1 L=1e-6*ScaleF1+deltlP1 M=1
MM11 Iout net26 net9 Vdd PMOS W=28e-6*ScaleF1+deltwP1 L=1e-6*ScaleF1+deltlP1 M=1
.ENDS

************************************************************************
* Library Name: Toyota_ToshibaLib
* Cell Name: Multiplier
* View Name: schematic
************************************************************************

.SUBCKT Multiplier Gnd Vdd Vin1 Vin2 Vout Vss
*.PININFO Gnd:I Vdd:I Vin1:I Vin2:I Vss:I Vout:O
RR9 net31 net046 100K $[RH]
RR8 net45 net31 100K $[RH]
RR7 net43 net33 100K $[RH]
RR4 Vin2 net35 100K $[RH]
RR3 net39 net37 25K $[RH]
RR2 Vin1 net39 100K $[RH]
RR1 net51 Vout 970.00K $[RH]
RR6 net37 net43 100K $[RH]
RR5 net35 net45 25K $[RH]
XI5 net51 Vdd Vss net37 net33 net45 net046 / Multiplier_cell
XI15 Vdd Gnd net31 net046 Vss / OP_AMP_DS
XI12 Vdd Gnd net39 net37 Vss / OP_AMP_DS
XI13 Vdd Gnd net35 net45 Vss / OP_AMP_DS
XI14 Vdd Gnd net43 net33 Vss / OP_AMP_DS
XI11 Vdd Gnd net51 Vout Vss / OP_AMP_DS
.ENDS

************************************************************************
* Library Name: Toyota_ToshibaLib
* Cell Name: Divider
* View Name: schematic
************************************************************************

.SUBCKT Divider Gnd Vdd Vin1 Vin2 Vout Vss
*.PININFO Gnd:I Vdd:I Vin1:I Vin2:I Vss:I Vout:O
XI2 Vdd Vin1 net6 Vout Vss / OP_AMP_DS
XI3 Gnd Vdd Vin2 Vout net6 Vss / Multiplier
.ENDS

************************************************************************
* Library Name: Toyota_ToshibaLib
* Cell Name: Vcon12_block
* View Name: schematic
************************************************************************

.SUBCKT Vcon12_block Gnd Vcon6 Vcon12 Vdd Vout2 Vout4 Vss
*.PININFO Gnd:I Vcon6:I Vdd:I Vout2:I Vout4:I Vss:I Vcon12:O
RR3 Vcon12 Gnd 40K $[RH]
RR2 net16 Vcon12 60K $[RH]
RR1 net19 Gnd 20K $[RH]
RR0 net12 net19 50K $[RH]
XI2 Gnd Vdd net24 net12 net15 Vss / Multiplier
XI3 Vdd net15 net16 net16 Vss / OP_AMP
XI1 Vdd Vcon6 net19 net12 Vss / OP_AMP
XI0 Gnd Vdd Vout4 Vout2 net24 Vss / Divider
.ENDS

************************************************************************
* Library Name: Toyota_ToshibaLib
* Cell Name: Vcon10_block
* View Name: schematic
************************************************************************

.SUBCKT Vcon10_block Gnd Vcon2 Vcon10 Vdd Vss
*.PININFO Gnd:I Vcon2:I Vdd:I Vss:I Vcon10:O
RR1 net7 Gnd 100K $[RH]
RR0 Vcon10 net7 22K $[RH]
XI0 Vdd Vcon2 net7 Vcon10 Vss / OP_AMP
.ENDS

************************************************************************
* Library Name: Toyota_ToshibaLib
* Cell Name: Vcon8_block
* View Name: schematic
************************************************************************

.SUBCKT Vcon8_block Gnd Vcon2 Vcon8 Vdd Vout1 Vout3 Vss
*.PININFO Gnd:I Vcon2:I Vdd:I Vout1:I Vout3:I Vss:I Vcon8:O
RR3 Vcon8 Gnd 40K $[RH]
RR2 net16 Vcon8 60K $[RH]
RR1 net19 Gnd 20K $[RH]
RR0 net12 net19 50K $[RH]
XI2 Gnd Vdd net24 net12 net15 Vss / Multiplier
XI3 Vdd net15 net16 net16 Vss / OP_AMP
XI1 Vdd Vcon2 net19 net12 Vss / OP_AMP
XI0 Gnd Vdd Vout3 Vout1 net24 Vss / Divider
.ENDS

************************************************************************
* Library Name: Toyota_ToshibaLib
* Cell Name: Vcon7_block
* View Name: schematic
************************************************************************

.SUBCKT Vcon7_block Gnd Vcon1 Vcon7 Vdd Vss
*.PININFO Gnd:I Vcon1:I Vdd:I Vss:I Vcon7:O
RR1 net7 Gnd 100K $[RH]
RR0 Vcon7 net7 22K $[RH]
XI0 Vdd Vcon1 net7 Vcon7 Vss / OP_AMP
.ENDS

************************************************************************
* Library Name: Toyota_ToshibaLib
* Cell Name: Suntraction
* View Name: schematic
************************************************************************

.SUBCKT Suntraction Gnd Vdd Vin1 Vin2 Vout Vss
*.PININFO Gnd:I Vdd:I Vin1:I Vin2:I Vss:I Vout:O
RR4 Vin2 net14 100K $[RH]
RR3 net14 Vout 100K $[RH]
RR2 net16 net14 100K $[RH]
RR1 net18 net16 100K $[RH]
RR0 Vin1 net18 100K $[RH]
XI1 Vdd Gnd net14 Vout Vss / OP_AMP
XI0 Vdd Gnd net18 net16 Vss / OP_AMP
.ENDS

************************************************************************
* Library Name: Toyota_ToshibaLib
* Cell Name: Vcon6_block
* View Name: schematic
************************************************************************

.SUBCKT Vcon6_block Gnd Vdd Vout4 Vout6 Vref_Vcon6 Vss
*.PININFO Gnd:I Vdd:I Vout4:I Vref_Vcon6:I Vss:I Vout6:O
RR1 net5 Gnd 28.0466K $[RH]
RR0 net14 net5 71.9534K $[RH]
XI1 Gnd Vdd net9 Vref_Vcon6 Vout6 Vss / Suntraction
XI2 Vdd net5 net9 net9 Vss / OP_AMP
XI0 Vdd Vout4 net14 net14 Vss / OP_AMP
.ENDS

************************************************************************
* Library Name: Toyota_ToshibaLib
* Cell Name: Square_root_cell
* View Name: schematic
************************************************************************

.SUBCKT Square_root_cell Iout Vdd Vss Vx+ Vx-
*.PININFO Vdd:I Vss:I Vx+:I Vx-:I Iout:O
MM1 net16 Vx+ Vss Vss NMOS W=2e-6*ScaleF1+deltwN1 L=11e-6*ScaleF1+deltlN1 M=1
MM3 net8 Vx- Vss Vss NMOS W=2e-6*ScaleF1+deltwN1 L=11e-6*ScaleF1+deltlN1 M=1
MM2 net12 Vx- Vss Vss NMOS W=2e-6*ScaleF1+deltwN1 L=11e-6*ScaleF1+deltlN1 M=1
MM4 net4 Vx+ Vss Vss NMOS W=2e-6*ScaleF1+deltwN1 L=11e-6*ScaleF1+deltlN1 M=1
MM8 net28 Vx- net4 Vss NMOS W=2e-6*ScaleF1+deltwN1 L=11e-6*ScaleF1+deltlN1 M=1
MM7 Iout Vx- net8 Vss NMOS W=2e-6*ScaleF1+deltwN1 L=11e-6*ScaleF1+deltlN1 M=1
MM6 net28 Vx+ net12 Vss NMOS W=2e-6*ScaleF1+deltwN1 L=11e-6*ScaleF1+deltlN1 M=1
MM5 Iout Vx+ net16 Vss NMOS W=2e-6*ScaleF1+deltwN1 L=11e-6*ScaleF1+deltlN1 M=1
MM10 net28 net28 net43 Vdd PMOS W=28e-6*ScaleF1+deltwP1 L=1e-6*ScaleF1+deltlP1 M=1
MM11 net39 net43 Vdd Vdd PMOS W=28e-6*ScaleF1+deltwP1 L=1e-6*ScaleF1+deltlP1 M=1
MM9 net43 net43 Vdd Vdd PMOS W=28e-6*ScaleF1+deltwP1 L=1e-6*ScaleF1+deltlP1 M=1
MM12 Iout net28 net39 Vdd PMOS W=28e-6*ScaleF1+deltwP1 L=1e-6*ScaleF1+deltlP1 M=1
.ENDS

************************************************************************
* Library Name: Toyota_ToshibaLib
* Cell Name: Square_root
* View Name: schematic
************************************************************************

.SUBCKT Square_root Gnd Square_root_trim_1 Square_root_trim_2 Vdd Vin Vout Vss
*.PININFO Gnd:I Vdd:I Vin:I Vss:I Square_root_trim_1:O Square_root_trim_2:O
*+Vout:O
MM0 Vdd net44 Vout Vss NMOS W=200e-6*ScaleF1+deltwN1 L=600e-9*ScaleF1+deltlN1 M=1
RR5 Vout Gnd 200K $[RH]
RR4 Square_root_trim_2 Square_root_trim_1 290K $[RH]
RR3 net22 net45 100K $[RH]
RR2 net46 net22 100K $[RH]
RR1 Vout net26 200K $[RH]
RR0 net26 net46 100K $[RH]
XI0 Square_root_trim_2 Vdd Vss net46 net45 / Square_root_cell
XI4 Vdd Vin Square_root_trim_1 net44 Vss / OP_AMP_DS
XI3 Vdd Gnd Square_root_trim_2 Square_root_trim_1 Vss / OP_AMP_DS
XI2 Vdd Gnd net22 net45 Vss / OP_AMP_DS
XI1 Vdd Gnd net26 net46 Vss / OP_AMP_DS
.ENDS

************************************************************************
* Library Name: Toyota_ToshibaLib
* Cell Name: Adding
* View Name: schematic
************************************************************************

.SUBCKT Adding Gnd Vdd Vin1 Vin2 Vout Vss
*.PININFO Gnd:I Vdd:I Vin1:I Vin2:I Vss:I Vout:O
RR2 net8 Vout 50k $[RH]
RR1 Vin2 net8 50k $[RH]
RR0 Vin1 net8 50k $[RH]
XI0 Vdd Gnd net8 Vout Vss / OP_AMP
.ENDS

************************************************************************
* Library Name: Toyota_ToshibaLib
* Cell Name: Vcon2_block
* View Name: schematic
************************************************************************

.SUBCKT Vcon2_block Gnd Square_root_trim_1 Square_root_trim_2 System_input Vcon2 Vcon2_test_1 Vcon2_test_2 Vcon2_test_3 Vcon2_test_4 Vcon2_test_5 Vcon2_test_6 Vdd Vout3 Vout4 Vref_Vcon2_1 Vref_Vcon2_2 Vss
*.PININFO Gnd:I System_input:I Vdd:I Vout3:I Vout4:I Vref_Vcon2_1:I
*+Vref_Vcon2_2:I Vss:I Square_root_trim_1:O Square_root_trim_2:O Vcon2:O
*+Vcon2_test_1:O Vcon2_test_2:O Vcon2_test_3:O Vcon2_test_4:O Vcon2_test_5:O
*+Vcon2_test_6:O
RR2 net075 Gnd 100K $[RH]
RR3 net054 net075 30K $[RH]
RR1 Vcon2_test_3 Gnd 97.36K $[RH]
RR0 net11 Vcon2_test_3 2.64K $[RH]
XI4 Gnd Square_root_trim_1 Square_root_trim_2 Vdd Vcon2_test_3 Vcon2_test_4 Vss / Square_root